Version 4
SHEET 1 1496 680
WIRE 144 80 -16 80
WIRE 336 80 224 80
WIRE 704 80 560 80
WIRE 896 80 784 80
WIRE 1248 80 1088 80
WIRE 1456 80 1328 80
WIRE -448 96 -608 96
WIRE -272 96 -368 96
WIRE -608 144 -608 96
WIRE -272 144 -272 96
WIRE -16 144 -16 80
WIRE 336 144 336 80
WIRE 560 144 560 80
WIRE 1088 144 1088 80
WIRE 1456 144 1456 80
WIRE 896 160 896 80
WIRE -608 272 -608 224
WIRE -272 272 -272 208
WIRE -272 272 -608 272
WIRE -16 272 -16 224
WIRE 336 272 336 208
WIRE 336 272 -16 272
WIRE 560 272 560 224
WIRE 896 272 896 224
WIRE 896 272 560 272
WIRE 1088 272 1088 224
WIRE 1456 272 1456 208
WIRE 1456 272 1088 272
FLAG -16 272 0
FLAG 560 272 0
FLAG 1088 272 0
FLAG -608 272 0
SYMBOL voltage -16 128 R0
SYMATTR InstName V1
SYMATTR Value SINE(0 1 180 0 0 0 0)
SYMBOL res 240 64 R90
WINDOW 0 0 56 VBottom 2
WINDOW 3 32 56 VTop 2
SYMATTR InstName R1
SYMATTR Value 884
SYMBOL cap 320 144 R0
SYMATTR InstName C1
SYMATTR Value 1µ
SYMBOL voltage 560 128 R0
WINDOW 123 0 0 Left 0
WINDOW 39 0 0 Left 0
SYMATTR InstName V2
SYMATTR Value SINE(0 1 1800 0 0 0 0)
SYMBOL res 800 64 R90
WINDOW 0 0 56 VBottom 2
WINDOW 3 32 56 VTop 2
SYMATTR InstName R2
SYMATTR Value 884
SYMBOL cap 880 160 R0
SYMATTR InstName C2
SYMATTR Value 1µ
SYMBOL voltage 1088 128 R0
WINDOW 123 0 0 Left 0
WINDOW 39 0 0 Left 0
SYMATTR InstName V3
SYMATTR Value SINE(0 1 18000 0 0 0 0)
SYMBOL res 1344 64 R90
WINDOW 0 0 56 VBottom 2
WINDOW 3 32 56 VTop 2
SYMATTR InstName R3
SYMATTR Value 884
SYMBOL cap 1440 144 R0
SYMATTR InstName C3
SYMATTR Value 1µ
SYMBOL voltage -608 128 R0
WINDOW 123 0 0 Left 0
WINDOW 39 0 0 Left 0
SYMATTR InstName V4
SYMATTR Value SINE(0 1 18 0 0 0 0)
SYMBOL res -352 80 R90
WINDOW 0 0 56 VBottom 2
WINDOW 3 32 56 VTop 2
SYMATTR InstName R4
SYMATTR Value 884
SYMBOL cap -288 144 R0
SYMATTR InstName C4
SYMATTR Value 1µ
TEXT -50 296 Left 2 !.tran 100m
